<edges>
    <edge id="N2C" from="N" to="C" numLanes="3" speed="13.9"/>
    <edge id="C2N" from="C" to="N" numLanes="3" speed="13.9"/>

    <edge id="S2C" from="S" to="C" numLanes="3" speed="13.9"/>
    <edge id="C2S" from="C" to="S" numLanes="3" speed="13.9"/>

    <edge id="E2C" from="E" to="C" numLanes="3" speed="13.9"/>
    <edge id="C2E" from="C" to="E" numLanes="3" speed="13.9"/>

    <edge id="W2C" from="W" to="C" numLanes="3" speed="13.9"/>
    <edge id="C2W" from="C" to="W" numLanes="3" speed="13.9"/>
</edges>
