<routes>
    <vType id="car" accel="1.0" decel="4.5" sigma="0.5" length="5" maxSpeed="13.9"/>

    <!-- Diagonal traffic -->
    <flow id="f1" type="car" begin="0" end="1000" number="800"
          from="A0A1" to="B1B0"/>

    <flow id="f2" type="car" begin="0" end="1000" number="800"
          from="B0B1" to="A1A0"/>

    <!-- Cross traffic -->
    <flow id="f3" type="car" begin="0" end="1000" number="800"
          from="A1B1" to="B0A0"/>

    <flow id="f4" type="car" begin="0" end="1000" number="800"
          from="B1A1" to="A0B0"/>
</routes>